LTspice 24.1.1 for Windows
Circuit: C:\Users\klpui\Documents\LTspice\Draft2.net
Start Time: Wed Mar  5 15:38:20 2025
solver = Normal
Maximum thread count: 16
tnom = 27
temp = 27
method = trap
Direct Newton iteration for .op point succeeded.
Total elapsed time: 0.313 seconds.

Files loaded:
C:\Users\klpui\Documents\LTspice\Draft2.net

