LTspice 24.1.1 for Windows
Circuit: C:\Users\klpui\Documents\LTspice\Draft8.net
Start Time: Thu Mar  6 13:13:17 2025
solver = Normal
Maximum thread count: 16
tnom = 27
temp = 27
method = trap
.OP point found by inspection.
Total elapsed time: 0.036 seconds.

Files loaded:
C:\Users\klpui\Documents\LTspice\Draft8.net

