LTspice 24.1.1 for Windows
Circuit: C:\Users\klpui\Documents\LTspice\Draft3.net
Start Time: Wed Mar  5 17:04:36 2025
solver = Normal
Maximum thread count: 16
tnom = 27
temp = 27
method = trap
.OP point found by inspection.
Total elapsed time: 0.040 seconds.

Files loaded:
C:\Users\klpui\Documents\LTspice\Draft3.net

