LTspice 24.1.1 for Windows
Circuit: C:\Users\klpui\Documents\LTspice\Draft9 param and step directives.net
Start Time: Thu Mar  6 14:17:25 2025
solver = Normal
Maximum thread count: 16
tnom = 27
temp = 27
method = trap
Direct Newton iteration for .op point succeeded.
Total elapsed time: 0.057 seconds.

Files loaded:
C:\Users\klpui\Documents\LTspice\Draft9 param and step directives.net

